/*--------------------------------*- C++ -*----------------------------------*\
  =========                 |
  \\      /  F ield         | OpenFOAM: The Open Source CFD Toolbox
   \\    /   O peration     | Website:  https://openfoam.org
    \\  /    A nd           | Version:  9
     \\/     M anipulation  |
\*---------------------------------------------------------------------------*/
FoamFile
{
    version     2.0;
    format      ascii;
    class       dictionary;
    location    "system";
    object      fvSchemes;
}
// * * * * * * * * * * * * * * * * * * * * * * * * * * * * * * * * * * * * * //

ddtSchemes
{
    default         Euler;
}

gradSchemes
{
    default         Gauss linear;
    grad(U)         cellLimited Gauss linear 1;
    grad(alpha)     cellLimited Gauss linear 1;
}

divSchemes
{
    div(rhoPhi,U)   Gauss limitedLinearV 1;
    div(phi,alpha)  Gauss vanLeer;
    div(phirb,alpha) Gauss linear;
    div(phi,T)      Gauss limitedLinear 1;
    div(phi,p)      Gauss linear;
    div(rhoPhi,K)   Gauss limitedLinear 1;
    div(alphaRhoPhi.water,h.water) Gauss limitedLinear 1;
    div(alphaRhoPhi.air,h.air) Gauss limitedLinear 1;
    div(alphaRhoPhi,h) Gauss limitedLinear 1;
    div(alphaRhoPhi.water,T) Gauss limitedLinear 1;
    div(alphaRhoPhi.air,T) Gauss limitedLinear 1;
    div(alphaRhoPhi,T) Gauss limitedLinear 1;
    div(phi,k)      Gauss limitedLinear 1;
    div(rhoPhi,k)   Gauss limitedLinear 1;
    div(phi,epsilon) Gauss limitedLinear 1;
    div(rhoPhi,epsilon) Gauss limitedLinear 1;
    div(((rho*nuEff)*dev2(T(grad(U))))) Gauss linear;
}

laplacianSchemes
{
    default         Gauss linear corrected;
}

interpolationSchemes
{
    default         linear;
}

snGradSchemes
{
    default         corrected;
}

wallDist
{
    method meshWave;
}

// ************************************************************************* //
