/*--------------------------------*- C++ -*----------------------------------*\
  =========                 |
  \\      /  F ield         | OpenFOAM: The Open Source CFD Toolbox
   \\    /   O peration     | Website:  https://openfoam.org
    \\  /    A nd           | Version:  9
     \\/     M anipulation  |
\*---------------------------------------------------------------------------*/
FoamFile
{
    version     2.0;
    format      ascii;
    class       dictionary;
    location    "constant";
    object      phaseChangeProperties;
}
// * * * * * * * * * * * * * * * * * * * * * * * * * * * * * * * * * * * * * //

phaseChangeModel    Lee;

LeeCoeffs
{
    condensationCoeff   0.5;
    evaporationCoeff    0.5;
}

saturationTemperature   373.15;  // 100°C in Kelvin

latentHeat             2.26e6;   // J/kg - latent heat of vaporization for water

// ************************************************************************* //
